exit
@student.first_name @student.last_name
@student.last_name
@student.first_name
@student = Student.find(params[:id])
exit
Student.find(params[:id])
Student.all
Student.create([{ first_name: "Rick", last_name: "Sanchez" }, { first_name: "Morty", last_name: "Smith" }])
Student.all
Student.find(params[:id])
exit
Student.find(1)
Student.find(params[:id])
/Users/joetustin/Flatiron/Code/Mod-2/week2/labs/rails-dynamic-request-lab-denver-web-career-042219/app/controllers/students_controller.rb
@student
exit
params
exit
params
